begin 600 gs_entmaster00007110.out
MK0-5T4 2ZFG8^-;GRU13COG ;CL0,16K=?H*)8?51E1RRGS@XP*@@UEFDU(N
MWD2NK^%UDF>$0(<7BKX1,CRO0,>_=CYZ/R_ZR'?[F>@VF,>*7_B;LTBB+Z#T
M7>@5_HX)3\NW&JCP:BE#66KKKVI#3:%=X33U'N_["=T2G0]D%Z]0F/$0'C8"
MY+3F)):FE*?@(8#!U8I$AE A[7?G]AC1+3Z_@=+C^BIX_V^HZ2]QL0T.>-D;
M&0[V\+ZUU6#!&M%'9M(10]*7(*AG9TS1L<TVWBE5'8VG3OO8I6@O(OLG\>\ 
M<N">K IK?=+N],?I1>X,#C()^10#LN=KO5).(M^/+CTF0;68/K0M\1BC\&^Q
MSYVQ3$EC?X=<0G9XWI_H(TI?.(G%SQKSUP0X9<IY"1MST'L+32MH/Q=U*ND'
M5*QA[/\AHN0Z95%]0MKWE0R!]PB^B(A*92"=RW:T/? I=KVIY$H1 ]NL\Z 8
ML U:19E6TZF*-;(P(GY)9+H7(7)(UXM@&X -7FVX_:S13OX9?,=W(Y;G79$0
M/Z,,QZB5C\CG?A_XD @N\+JFUTH[=8Z<G:F/S6^,(48V'#'=G"T,?)5=Z-X6
M-?0L(N"__*V7>::;UGD?CA'P>B8=[,K+S]\=+064:6\W#A&7"?7,?XV"%GJ@
MJ[1):-D>QB7'[YK8W,]$VWP;"%OZ)B[\)& 09?T''L8P<SXQ5A5O=$O@@Z^_
M8Y5:%0^3[5S2;V5 $$+V=_I:[/RAG-F$/0K*;&'A-ANX60BTGY8W]\;39^.H
MMT3DJ:PLO5K"0X%WR;$T/&0KX!%B\\6.^1M1ISK4(MNW#;K=ZY(62U8$.65T
MY';J_BNG,L! 0="\$LUL"WU#DJ(1LE?\VR&Y=A6_AO[36ST0VKOTQOS!0N'/
MT@P%59CSG*S\X#N(C+H)3Y:-#;><>>$XJN:9LX #(?*G((4; D[E' XGE8F5
84<-4^_L_O<K,728QT*/JFJ_G0_,LFMN8
 
end
